5
Properties=species:S:1:pos:R:3:initial_charges:R:1 pbc="F F F"
S        0.00000000       0.00000000       0.00000000       1.60000000
O        1.29560000      -0.61070000      -0.34930000      -0.90000000
O        0.10320000       0.65120000       1.31850000      -0.90000000
O       -0.36000000       1.00450000      -1.01720000      -0.90000000
O       -1.03880000      -1.04500000       0.04800000      -0.90000000
